Version 4
SHEET 1 880 680
WIRE 320 -160 320 -192
WIRE 320 -32 320 -80
WIRE 112 48 32 48
WIRE 224 48 192 48
WIRE 272 48 224 48
WIRE 32 112 32 48
WIRE 224 256 224 48
WIRE 32 368 32 192
WIRE 224 368 224 336
WIRE 224 368 32 368
WIRE 320 368 320 64
WIRE 320 368 224 368
WIRE 224 384 224 368
FLAG 320 -192 Vdd
FLAG 32 48 Vdd
FLAG 224 384 0
SYMBOL voltage 32 96 R0
WINDOW 123 0 0 Left 0
WINDOW 39 0 0 Left 0
SYMATTR InstName V1
SYMATTR Value PULSE(0 12 200m 1n 1n 1.5)
SYMBOL nmos 272 -32 R0
SYMATTR InstName M1
SYMATTR Value AO6408
SYMBOL res 336 -64 R180
WINDOW 0 36 76 Left 2
WINDOW 3 36 40 Left 2
SYMATTR InstName R1
SYMATTR Value 7.19
SYMBOL res 208 32 R90
WINDOW 0 0 56 VBottom 2
WINDOW 3 32 56 VTop 2
SYMATTR InstName R2
SYMATTR Value 1k
SYMBOL res 208 240 R0
SYMATTR InstName R3
SYMATTR Value 100k
TEXT 632 144 Left 2 !.tran 2s
