Version 4
SHEET 1 880 680
WIRE 176 -32 176 -96
WIRE 176 96 176 48
WIRE 320 96 176 96
WIRE 480 96 400 96
WIRE 608 96 480 96
WIRE 176 112 176 96
WIRE 480 176 480 96
WIRE -80 192 -736 192
WIRE -16 192 -80 192
WIRE 128 192 64 192
WIRE -736 224 -736 192
WIRE -80 256 -80 192
WIRE 176 288 176 208
WIRE 480 288 480 256
WIRE -736 384 -736 304
WIRE -80 384 -80 336
FLAG -80 384 0
FLAG -736 384 0
FLAG 176 288 0
FLAG 480 288 0
FLAG 608 96 Sensor
IOPIN 608 96 Out
FLAG 176 -96 Fet
IOPIN 176 -96 Out
SYMBOL nmos 128 112 R0
SYMATTR InstName M1
SYMBOL res 80 176 R90
WINDOW 0 0 56 VBottom 2
WINDOW 3 32 56 VTop 2
SYMATTR InstName R1
SYMATTR Value 1000
SYMBOL res -64 352 R180
WINDOW 0 36 76 Left 2
WINDOW 3 36 40 Left 2
SYMATTR InstName R2
SYMATTR Value 3300
SYMBOL res 416 80 R90
WINDOW 0 0 56 VBottom 2
WINDOW 3 32 56 VTop 2
SYMATTR InstName R3
SYMATTR Value 100000
SYMBOL res 496 272 R180
WINDOW 0 36 76 Left 2
WINDOW 3 36 40 Left 2
SYMATTR InstName R4
SYMATTR Value 27000
SYMBOL res 160 -48 R0
SYMATTR InstName Load
SYMATTR Value 2
SYMBOL voltage -736 208 R0
WINDOW 123 0 0 Left 0
WINDOW 39 0 0 Left 0
SYMATTR InstName V1
SYMATTR Value PULSE(-1 5 1m 1.5m 1m 2m 6m 2)
TEXT -786 432 Left 2 !.tran 20m
